  
       XFOIL         Version 6.99
  
 Calculated polar for: E205  (10.48%)                                  
  
 1 1 Reynolds number fixed          Mach number fixed         
  
 xtrf =   1.000 (top)        1.000 (bottom)  
 Mach =   0.050     Re =     0.200 e 6     Ncrit =   9.000  9.000
  
   alpha    CL        CD       CDp       CM     Top_Xtr  Bot_Xtr  Top_Itr  Bot_Itr
  ------ -------- --------- --------- -------- -------- -------- -------- --------
 -11.500  -0.3483   0.12661   0.09986  -0.0186   1.0000   0.0448   1.0000  92.8390
 -11.000  -0.3603   0.12039   0.09196  -0.0250   1.0000   0.0463   1.0000  92.9777
 -10.500  -0.4153   0.11449   0.09743  -0.0267   1.0000   0.0464   1.0000  92.9792
 -10.000  -0.4134   0.10479   0.09027  -0.0292   1.0000   0.0474   1.0000  93.0616
  -9.500  -0.3926   0.09874   0.08680  -0.0271   1.0000   0.0496   1.0000  93.2394
  -9.000  -0.3848   0.09256   0.08096  -0.0286   1.0000   0.0523   1.0000  93.4536
  -8.500  -0.3859   0.08569   0.07400  -0.0318   1.0000   0.0556   1.0000  93.7139
  -8.000  -0.4150   0.07761   0.06390  -0.0405   1.0000   0.0585   1.0000  93.9361
  -7.500  -0.4414   0.06915   0.05245  -0.0467   1.0000   0.0592   1.0000  93.9962
  -7.000  -0.4355   0.06103   0.05008  -0.0431   1.0000   0.0615   1.0000  94.1674
  -6.500  -0.4387   0.05692   0.04679  -0.0385   1.0000   0.0638   1.0000  94.3485
  -6.000  -0.3854   0.04510   0.03447  -0.0512   0.9823   0.0748   2.8431  95.1832
  -5.500  -0.3186   0.03817   0.02819  -0.0585   0.9615   0.0897   4.4088  96.2929
  -5.000  -0.2539   0.03190   0.02213  -0.0634   0.9345   0.1046   6.3293  97.3683
  -4.500  -0.1889   0.01780   0.00645  -0.0607   0.9042   0.0383   8.4640  92.2575
  -4.000  -0.1306   0.01561   0.00459  -0.0602   0.8672   0.0409  11.0393  92.4869
  -3.500  -0.0802   0.01447   0.00353  -0.0583   0.8289   0.0468  13.6949  93.0198
  -3.000  -0.0333   0.01302   0.00256  -0.0560   0.7974   0.0618  15.8860  94.1935
  -2.500   0.0114   0.01145   0.00212  -0.0540   0.7700   0.2632  17.7923 108.4696
  -2.000   0.0518   0.01021   0.00216  -0.0510   0.7463   0.5691  19.4391 129.5293
  -1.500   0.1511   0.00957   0.00236  -0.0575   0.7255   0.9484  20.8859 155.6868
  -1.000   0.2701   0.00974   0.00209  -0.0703   0.7042   1.0000  22.3665 160.0000
  -0.500   0.3156   0.00986   0.00208  -0.0685   0.6858   1.0000  23.6450 160.0000
   0.000   0.3625   0.01004   0.00212  -0.0669   0.6693   1.0000  24.7961 160.0000
   0.500   0.4103   0.01026   0.00221  -0.0654   0.6537   1.0000  25.8775 160.0000
   1.000   0.4589   0.01052   0.00233  -0.0639   0.6390   1.0000  26.9067 160.0000
   1.500   0.5078   0.01081   0.00248  -0.0626   0.6247   1.0000  27.9041 160.0000
   2.000   0.5570   0.01112   0.00266  -0.0613   0.6107   1.0000  28.8798 160.0000
   2.500   0.6064   0.01145   0.00285  -0.0600   0.5969   1.0000  29.8420 160.0000
   3.000   0.6559   0.01180   0.00306  -0.0587   0.5831   1.0000  30.8035 160.0000
   3.500   0.7054   0.01215   0.00325  -0.0575   0.5689   1.0000  31.7951 160.0000
   4.000   0.7548   0.01248   0.00339  -0.0561   0.5538   1.0000  32.8498 160.0000
   4.500   0.8041   0.01280   0.00345  -0.0547   0.5379   1.0000  33.9634 160.0000
   5.000   0.8522   0.01308   0.00355  -0.0531   0.5200   1.0000  35.2205 160.0000
   5.500   0.9002   0.01332   0.00357  -0.0515   0.5006   1.0000  36.5806 160.0000
   6.000   0.9483   0.01355   0.00343  -0.0498   0.4804   1.0000  38.0104 160.0000
   6.500   0.9942   0.01374   0.00337  -0.0478   0.4552   1.0000  39.7863 160.0000
   7.000   1.0390   0.01396   0.00317  -0.0456   0.4247   1.0000  41.9559 160.0000
   7.500   1.0806   0.01430   0.00300  -0.0429   0.3804   1.0000  45.1026 160.0000
   8.000   1.1148   0.01515   0.00295  -0.0393   0.3016   1.0000  50.7488 160.0000
   8.500   1.1348   0.01722   0.00360  -0.0342   0.1950   1.0000  58.4743 160.0000
   9.000   1.1523   0.01951   0.00463  -0.0291   0.1237   1.0000  63.7677 160.0000
   9.500   1.1618   0.02205   0.00574  -0.0230   0.0689   1.0000  68.0849 160.0000
  10.000   1.1444   0.02576   0.00749  -0.0137   0.0338   1.0000  71.3037 160.0000
  10.500   1.1365   0.02967   0.00979  -0.0082   0.0267   1.0000  72.0768 160.0000
  11.000   1.1398   0.03351   0.01225  -0.0050   0.0234   1.0000  72.5081 160.0000
  11.500   1.1412   0.03800   0.01526  -0.0028   0.0214   1.0000  72.7704 160.0000
  12.000   1.1425   0.04306   0.01841  -0.0002   0.0200   1.0000  72.9669 160.0000
